%%%%%%%%%%%%%%%%%%%%%%%%%%%%%%%%%%%%%%%%%%%%%%%%%%%%%%%%%%%%%%%%%%%%%%%%%%%%%%%%
%                                                                              %
% SU2 configuration file, automatically generated with "3:run_SU2.py"          %
% Case description: Non-ideal compressible fluid flow in a converging-         %
%                   diverging supersonic nozzle using a PINN for thermodynamic %
%                   state calculations.                                        %
% Author: Evert Bunschoten                                                     %
% Institution: Delft University of Technology                                  %
% Date: 2025.3.26                                                              %
% File Version  8.1.0 "Harrier"                                                %
%                                                                              %
%%%%%%%%%%%%%%%%%%%%%%%%%%%%%%%%%%%%%%%%%%%%%%%%%%%%%%%%%%%%%%%%%%%%%%%%%%%%%%%%


SOLVER= RANS
KIND_TURB_MODEL= SA
SA_OPTIONS= NONE
RESTART_SOL=YES
MACH_NUMBER= 0.001
AoA= 0.0

FREESTREAM_PRESSURE= 19.6513e5
FREESTREAM_TEMPERATURE= 509.95
%FREESTREAM_PRESSURE= 1.94012e+06
%FREESTREAM_TEMPERATURE= 517.685

%FREESTREAM_TURBULENCEINTENSITY = 0.1

%FREESTREAM_TURB2LAMVISCRATIO = 100.0

FREESTREAM_OPTION= TEMPERATURE_FS

INIT_OPTION= TD_CONDITIONS

REF_DIMENSIONALIZATION= DIMENSIONAL

FLUID_MODEL= DATADRIVEN_FLUID
INTERPOLATION_METHOD = LUT
FILENAMES_INTERPOLATOR = (SU2table_twophase.drg)

%USE_PINN=YES
%INTERPOLATION_METHOD = MLP
%FILENAMES_INTERPOLATOR = (MLP_siloxane_MM.mlp)

VISCOSITY_MODEL= CONSTANT_VISCOSITY
%TABULATED_VISCOSITY

MU_CONSTANT= 1.0e-05

CONDUCTIVITY_MODEL= CONSTANT_PRANDTL 
% TABULATED_CONDUCTIVITY
PRANDTL_LAM=8.25e-01
TURBULENT_CONDUCTIVITY_MODEL=CONSTANT_PRANDTL_TURB
PRANDTL_TURB=8.25e-01

%MARKER_HEATFLUX= (WALL, 0.0)

%MARKER_MONITORING=(WALL)
%MARKER_EULER=(wall)
MARKER_HEATFLUX=(wall,0)

MARKER_SYM=(symmetry)

MARKER_GILES= (inlet, TOTAL_CONDITIONS_PT, 19.6513e5, 509.95, 1.0, 0.0, 0.0, 0.8, 0.8,\
               outlet, STATIC_PRESSURE,0.432e5, 0.0, 0.0, 0.0, 0.0, 0.8, 0.8)
% MARKER_GILES= (INLET, TOTAL_CONDITIONS_PT, 1.94012e+06, 517.685, 1.0, 0.0, 0.0, 0.8, 0.8,\
%                OUTLET, STATIC_PRESSURE,737795, 0.0, 0.0, 0.0, 0.0, 0.8, 0.8)
SPATIAL_FOURIER=NO
TURBOMACHINERY_KIND= AXIAL
TURBO_PERF_KIND=TURBINE
RAMP_OUTLET=NO
RAMP_OUTLET_COEFF= (19.6513e5, 5, 3000)
AVERAGE_PROCESS_KIND= AREA
MIXEDOUT_COEFF=(0.1, 1e-5, 15.0)
MARKER_TURBOMACHINERY= (inlet, outlet)

NUM_METHOD_GRAD= WEIGHTED_LEAST_SQUARES
CFL_NUMBER= 2
CFL_ADAPT= YES
CFL_ADAPT_PARAM= ( 0.99, 1.01, 1.0, 40)

LINEAR_SOLVER= FGMRES
LINEAR_SOLVER_PREC= ILU
LINEAR_SOLVER_ERROR= 1E-3
LINEAR_SOLVER_ITER= 20


CONV_NUM_METHOD_FLOW= ROE
MUSCL_FLOW= YES
SLOPE_LIMITER_FLOW= VENKATAKRISHNAN
VENKAT_LIMITER_COEFF=0.25

TIME_DISCRE_FLOW= EULER_IMPLICIT
CONV_NUM_METHOD_TURB= SCALAR_UPWIND
MUSCL_TURB = NO
SLOPE_LIMITER_TURB= VENKATAKRISHNAN
TIME_DISCRE_TURB= EULER_IMPLICIT
CFL_REDUCTION_TURB= 0.1

ITER=10000

CONV_RESIDUAL_MINVAL= -16
CONV_STARTITER= 10
CONV_CAUCHY_ELEMS= 100
CONV_CAUCHY_EPS= 1E-6
CONV_FILENAME=history_structured.csv
MESH_FILENAME= su2mesh.su2
MESH_FORMAT= SU2

% ---------------- CUSTOM OUTPUTS (printed in screen/history) ----------------
CUSTOM_OUTPUTS= 'mdot_in  : MassFlowInt{1}[inlet]; \
   mdot_out : MassFlowInt{1}[outlet]; \
   P_out    : AreaAvg{PRESSURE}[outlet]; \
   h_out    : MassFlowAvg{ENTHALPY}[outlet]'
   
OUTPUT_WRT_FREQ= 10
RESTART_FILENAME= restart_2ndorder_structured
OUTPUT_FILES=RESTART,PARAVIEW_MULTIBLOCK
VOLUME_FILENAME= flow_2ndorder_structured
SOLUTION_FILENAME=restart_2ndorder_structured.dat
SCREEN_OUTPUT= (INNER_ITER, RMS_DENSITY, RMS_MOMENTUM-X, RMS_MOMENTUM-Y, RMS_ENERGY, mdot_in, mdot_out, P_out, h_out)
HISTORY_OUTPUT= (INNER_ITER, WALL_TIME, RMS_RES, LINSOL_ITER, LINSOL_RESIDUAL, CFL_NUMBER, mdot_in, mdot_out, P_out, h_out)
VOLUME_OUTPUT= (SOLUTION, PRIMITIVE, RESIDUAL, MPI,SENSITIVITY,MESH_QUALITY, VAPORQUAL)
